Version 4
SHEET 1 880 680
WIRE 192 -80 -80 -80
WIRE 336 -80 336 -144
WIRE 336 -80 288 -80
WIRE 192 -64 192 -80
WIRE 224 -64 192 -64
WIRE 432 -64 400 -64
WIRE 544 -64 512 -64
WIRE 576 -64 544 -64
WIRE 704 -64 656 -64
WIRE 320 -48 288 -48
WIRE 544 -48 544 -64
WIRE 224 -32 48 -32
WIRE 320 -32 320 -48
WIRE 384 -16 288 -16
WIRE -288 0 -304 0
WIRE -176 0 -208 0
WIRE -400 112 -512 112
WIRE -304 112 -304 0
WIRE -304 112 -320 112
WIRE -288 112 -304 112
WIRE -176 112 -176 0
WIRE -176 112 -208 112
WIRE -80 112 -80 -80
WIRE -80 112 -176 112
WIRE -80 160 -80 112
WIRE 384 160 384 -16
WIRE 480 160 384 160
WIRE 560 160 480 160
WIRE -512 192 -512 112
WIRE -80 272 -80 240
WIRE 48 272 48 -32
WIRE 240 272 48 272
WIRE 272 272 240 272
WIRE 368 272 352 272
WIRE 384 272 368 272
WIRE 480 272 480 160
WIRE 480 272 464 272
WIRE 48 288 48 272
WIRE -512 336 -512 272
WIRE 48 384 48 368
WIRE 160 384 48 384
WIRE 240 384 240 272
WIRE 272 384 240 384
WIRE 368 384 368 272
WIRE 368 384 352 384
WIRE 48 400 48 384
WIRE 160 400 160 384
WIRE 48 512 48 480
WIRE 160 512 160 480
WIRE 160 512 48 512
WIRE 48 560 48 512
FLAG 560 160 vout
IOPIN 560 160 Out
FLAG 544 -48 0
FLAG 400 -64 vee
FLAG 704 -64 vcc
FLAG -512 112 vin
IOPIN -512 112 In
FLAG -512 336 0
FLAG 48 560 0
FLAG -80 272 0
FLAG 336 -144 vcc
FLAG 320 -32 vee
SYMBOL res 480 256 R90
WINDOW 0 0 56 VBottom 2
WINDOW 3 32 56 VTop 2
SYMATTR InstName R3
SYMATTR Value 1.5k
SYMBOL res -96 144 R0
SYMATTR InstName R4
SYMATTR Value 10k
SYMBOL voltage 528 -64 R90
WINDOW 0 -32 56 VBottom 2
WINDOW 3 32 56 VTop 2
WINDOW 123 0 0 Left 2
WINDOW 39 0 0 Left 2
SYMATTR InstName V1
SYMATTR Value 15
SYMBOL voltage 672 -64 R90
WINDOW 0 -32 56 VBottom 2
WINDOW 3 32 56 VTop 2
WINDOW 123 0 0 Left 2
WINDOW 39 0 0 Left 2
SYMATTR InstName V2
SYMATTR Value 15
SYMBOL res 368 256 R90
WINDOW 0 0 56 VBottom 2
WINDOW 3 32 56 VTop 2
SYMATTR InstName R5
SYMATTR Value 47k
SYMBOL res 368 368 R90
WINDOW 0 0 56 VBottom 2
WINDOW 3 32 56 VTop 2
SYMATTR InstName R6
SYMATTR Value 47k
SYMBOL voltage -512 176 R0
WINDOW 123 24 44 Left 2
WINDOW 39 24 72 Left 2
WINDOW 3 24 100 Left 2
SYMATTR Value2 AC 0.2
SYMATTR SpiceLine Rser=50
SYMATTR InstName v3
SYMATTR Value SINE(0 0.2)
SYMBOL res -416 128 R270
WINDOW 0 32 56 VTop 2
WINDOW 3 0 56 VBottom 2
SYMATTR InstName R7
SYMATTR Value 150
SYMBOL res -304 128 R270
WINDOW 0 32 56 VTop 2
WINDOW 3 0 56 VBottom 2
SYMATTR InstName R8
SYMATTR Value 4.7k
SYMBOL res -304 16 R270
WINDOW 0 32 56 VTop 2
WINDOW 3 0 56 VBottom 2
SYMATTR InstName R9
SYMATTR Value 4.7k
SYMBOL res 32 272 R0
SYMATTR InstName R1
SYMATTR Value 150
SYMBOL res 32 384 R0
SYMATTR InstName R2
SYMATTR Value 4.7k
SYMBOL res 144 384 R0
SYMATTR InstName R10
SYMATTR Value 4.7k
SYMBOL AutoGenerated\\LM324 256 -48 R0
SYMATTR InstName U2
TEXT -288 400 Left 2 !.ac dec 100 1 200k
