Version 4
SHEET 1 880 680
WIRE -2832 -1808 -2832 -1856
WIRE -2832 -1680 -2832 -1728
WIRE -2128 -1632 -2128 -1696
WIRE -2128 -1632 -2176 -1632
WIRE -2240 -1616 -2672 -1616
WIRE -2080 -1600 -2176 -1600
WIRE -2368 -1584 -2384 -1584
WIRE -2240 -1584 -2288 -1584
WIRE -2672 -1568 -2672 -1616
WIRE -2080 -1568 -2176 -1568
WIRE -2080 -1552 -2080 -1568
WIRE -1952 -1552 -1952 -1568
WIRE -1952 -1552 -2080 -1552
WIRE -2384 -1520 -2384 -1584
WIRE -2288 -1440 -2288 -1584
WIRE -2272 -1440 -2288 -1440
WIRE -2176 -1440 -2192 -1440
WIRE -2080 -1440 -2080 -1552
WIRE -2080 -1440 -2096 -1440
WIRE -2672 -1424 -2672 -1488
WIRE -2384 -1424 -2384 -1456
FLAG -2384 -1424 0
FLAG -2128 -1696 Vcc
FLAG -2080 -1600 0
FLAG -2832 -1856 Vcc
FLAG -2832 -1680 0
FLAG -2672 -1424 0
FLAG -1952 -1568 Vout
SYMBOL res -2272 -1600 R90
WINDOW 0 0 56 VBottom 2
WINDOW 3 32 56 VTop 2
SYMATTR InstName R1
SYMATTR Value 10K
SYMBOL res -2176 -1456 R90
WINDOW 0 0 56 VBottom 2
WINDOW 3 32 56 VTop 2
SYMATTR InstName R2
SYMATTR Value 10K
SYMBOL AutoGenerated\\TL08X -2208 -1600 R0
SYMATTR InstName U1
SYMBOL voltage -2832 -1824 R0
WINDOW 123 0 0 Left 0
WINDOW 39 0 0 Left 0
SYMATTR InstName V1
SYMATTR Value 9
SYMBOL voltage -2672 -1584 R0
WINDOW 123 0 0 Left 0
WINDOW 39 0 0 Left 0
SYMATTR InstName V2
SYMATTR Value SINE(4.5 100mv 1K)
SYMBOL res -2080 -1456 R90
WINDOW 0 0 56 VBottom 2
WINDOW 3 32 56 VTop 2
SYMATTR InstName R3
SYMATTR Value {R}
SYMBOL cap -2400 -1520 R0
SYMATTR InstName C1
SYMATTR Value 10µ
TEXT -2360 -1288 Left 2 !.tran 0 10.2 0.1 10us startup
