Version 4
SHEET 1 880 680
WIRE -64 64 -176 64
WIRE 48 64 16 64
WIRE 128 64 48 64
WIRE 448 64 208 64
WIRE 512 64 448 64
WIRE -176 112 -176 64
WIRE 48 144 48 64
WIRE 448 144 448 64
WIRE -176 256 -176 192
WIRE 48 256 48 208
WIRE 448 272 448 224
FLAG 48 256 0
FLAG 448 272 0
FLAG -176 256 0
FLAG 512 64 Vout
SYMBOL res 32 48 R90
WINDOW 0 0 56 VBottom 2
WINDOW 3 32 56 VTop 2
SYMATTR InstName R1
SYMATTR Value 1K
SYMBOL cap 32 144 R0
SYMATTR InstName C1
SYMATTR Value 10n
SYMBOL res 224 48 R90
WINDOW 0 0 56 VBottom 2
WINDOW 3 32 56 VTop 2
SYMATTR InstName R2
SYMATTR Value 100K
SYMBOL res 464 240 R180
WINDOW 0 36 76 Left 2
WINDOW 3 36 40 Left 2
SYMATTR InstName R3
SYMATTR Value 150k
SYMBOL voltage -176 96 R0
SYMATTR InstName V1
