Version 4
SHEET 1 1928 804
WIRE -560 208 -560 160
WIRE -208 288 -208 256
WIRE -560 336 -560 288
WIRE 496 496 496 432
WIRE 496 496 448 496
WIRE -576 512 -800 512
WIRE -416 512 -576 512
WIRE -208 512 -208 368
WIRE -208 512 -352 512
WIRE 384 512 -208 512
WIRE 544 528 448 528
WIRE 256 544 240 544
WIRE 384 544 336 544
WIRE 544 560 448 560
WIRE -800 576 -800 512
WIRE -576 576 -576 512
WIRE -208 576 -208 512
WIRE 544 576 544 560
WIRE 720 576 544 576
WIRE 832 576 784 576
WIRE 944 576 912 576
WIRE 1056 576 944 576
WIRE 1280 576 1056 576
WIRE 1392 576 1360 576
WIRE 1472 576 1392 576
WIRE 1792 576 1552 576
WIRE 1856 576 1792 576
WIRE 240 608 240 544
WIRE 944 656 944 576
WIRE 1056 656 1056 576
WIRE 1392 656 1392 576
WIRE 1792 656 1792 576
WIRE 336 688 336 544
WIRE 352 688 336 688
WIRE 448 688 432 688
WIRE 544 688 544 576
WIRE 544 688 528 688
WIRE 240 704 240 672
WIRE -800 736 -800 656
WIRE -576 736 -576 656
WIRE -208 736 -208 656
WIRE 944 768 944 720
WIRE 1056 768 1056 720
WIRE 1392 768 1392 720
WIRE 1792 784 1792 736
FLAG -576 736 0
FLAG -800 736 0
FLAG -208 736 0
FLAG -208 256 Vcc
FLAG -560 160 Vcc
FLAG -560 336 0
FLAG 240 704 0
FLAG 496 432 Vcc
FLAG 544 528 0
FLAG 944 768 0
FLAG 1056 768 0
FLAG 1392 768 0
FLAG 1792 784 0
FLAG 1856 576 Vout
SYMBOL res -192 384 R180
WINDOW 0 36 76 Left 2
WINDOW 3 36 40 Left 2
SYMATTR InstName R1
SYMATTR Value 470k
SYMBOL res -192 672 R180
WINDOW 0 36 76 Left 2
WINDOW 3 36 40 Left 2
SYMATTR InstName R2
SYMATTR Value 470k
SYMBOL res -592 560 R0
SYMATTR InstName R3
SYMATTR Value 220k
SYMBOL cap -352 496 R90
WINDOW 0 0 32 VBottom 2
WINDOW 3 32 32 VTop 2
SYMATTR InstName C1
SYMATTR Value 330n
SYMBOL voltage -800 560 R0
WINDOW 3 -270 190 Left 2
WINDOW 123 24 124 Left 2
WINDOW 39 0 0 Left 0
SYMATTR Value SINE(0.1 600m 440 10m 0 0 200)
SYMATTR Value2 AC 0.1
SYMATTR InstName V1
SYMBOL voltage -560 192 R0
WINDOW 123 0 0 Left 0
WINDOW 39 0 0 Left 0
SYMATTR InstName V2
SYMATTR Value 9
SYMBOL res 352 528 R90
WINDOW 0 0 56 VBottom 2
WINDOW 3 32 56 VTop 2
SYMATTR InstName R4
SYMATTR Value 10K
SYMBOL res 448 672 R90
WINDOW 0 0 56 VBottom 2
WINDOW 3 32 56 VTop 2
SYMATTR InstName R5
SYMATTR Value 10K
SYMBOL AutoGenerated\\TL08X 416 528 R0
SYMATTR InstName U1
SYMBOL res 544 672 R90
WINDOW 0 0 56 VBottom 2
WINDOW 3 32 56 VTop 2
SYMATTR InstName R6
SYMATTR Value {R}
SYMBOL cap 224 608 R0
SYMATTR InstName C2
SYMATTR Value 10µ
SYMBOL cap 784 560 R90
WINDOW 0 0 32 VBottom 2
WINDOW 3 32 32 VTop 2
SYMATTR InstName C3
SYMATTR Value 100n
SYMBOL res 928 560 R90
WINDOW 0 0 56 VBottom 2
WINDOW 3 32 56 VTop 2
SYMATTR InstName R7
SYMATTR Value 220k
SYMBOL diode 928 656 R0
WINDOW 3 -74 57 Left 2
SYMATTR Value 1N914
SYMATTR InstName D1
SYMBOL diode 1072 720 R180
WINDOW 0 24 64 Left 2
WINDOW 3 24 0 Left 2
SYMATTR InstName D2
SYMATTR Value 1N914
SYMBOL res 1376 560 R90
WINDOW 0 0 56 VBottom 2
WINDOW 3 32 56 VTop 2
SYMATTR InstName R8
SYMATTR Value 1K
SYMBOL cap 1376 656 R0
SYMATTR InstName C4
SYMATTR Value 10n
SYMBOL res 1568 560 R90
WINDOW 0 0 56 VBottom 2
WINDOW 3 32 56 VTop 2
SYMATTR InstName R9
SYMATTR Value 100K
SYMBOL res 1808 752 R180
WINDOW 0 36 76 Left 2
WINDOW 3 36 40 Left 2
SYMATTR InstName R10
SYMATTR Value 150k
