Version 4
SHEET 1 880 680
WIRE 128 -64 96 -64
WIRE 384 -64 208 -64
WIRE -128 -16 -128 -32
WIRE 384 64 384 -64
WIRE 384 64 272 64
WIRE -128 80 -128 64
WIRE -128 80 -176 80
WIRE 32 80 -48 80
WIRE 96 80 96 -64
WIRE 208 80 96 80
WIRE -176 96 -176 80
WIRE -48 96 -48 80
WIRE -128 112 -128 80
WIRE 208 112 112 112
WIRE 112 144 112 112
WIRE -128 208 -128 192
WIRE -48 224 -48 176
FLAG -176 96 0
FLAG -128 -32 +VCC
FLAG -128 208 -VCC
FLAG 112 144 0
FLAG -48 224 0
FLAG 384 64 VO
FLAG 272 128 +VCC
FLAG 272 96 -VCC
SYMBOL voltage -128 -32 R0
WINDOW 123 0 0 Left 0
WINDOW 39 0 0 Left 0
SYMATTR InstName V1
SYMATTR Value 18
SYMBOL voltage -128 96 R0
WINDOW 123 0 0 Left 0
WINDOW 39 0 0 Left 0
SYMATTR InstName V2
SYMATTR Value 18
SYMBOL cap 96 64 R90
WINDOW 0 0 32 VBottom 2
WINDOW 3 32 32 VTop 2
SYMATTR InstName C1
SYMATTR Value 20n
SYMBOL res 224 -80 R90
WINDOW 0 0 56 VBottom 2
WINDOW 3 32 56 VTop 2
SYMATTR InstName R1
SYMATTR Value 5k
SYMBOL AutoGenerated\\LM833 240 96 M180
SYMATTR InstName U1
SYMBOL voltage -48 80 R0
WINDOW 3 24 44 Left 2
WINDOW 123 0 0 Left 0
WINDOW 39 0 0 Left 0
SYMATTR InstName V3
SYMATTR Value 1
TEXT 80 224 Left 2 !;.ac dec 100 10 10000meg
TEXT 92 258 Left 2 !.tran 0 100m 0 0.1
