Version 4
SHEET 1 880 680
WIRE 256 -64 224 -64
WIRE 512 -64 336 -64
WIRE -128 -16 -128 -32
WIRE 512 64 512 -64
WIRE 512 64 400 64
WIRE -128 80 -128 64
WIRE -128 80 -176 80
WIRE 32 80 -48 80
WIRE 160 80 112 80
WIRE 224 80 224 -64
WIRE 336 80 224 80
WIRE -176 96 -176 80
WIRE -128 112 -128 80
WIRE 336 112 240 112
WIRE -48 128 -48 80
WIRE 240 144 240 112
WIRE -128 208 -128 192
WIRE -48 224 -48 208
FLAG -176 96 0
FLAG -128 -32 +VCC
FLAG -128 208 -VCC
FLAG 240 144 0
FLAG -48 224 0
FLAG 512 64 VO
FLAG 400 128 +VCC
FLAG 400 96 -VCC
SYMBOL voltage -128 -32 R0
WINDOW 123 0 0 Left 0
WINDOW 39 0 0 Left 0
SYMATTR InstName V1
SYMATTR Value 18
SYMBOL voltage -128 96 R0
WINDOW 123 0 0 Left 0
WINDOW 39 0 0 Left 0
SYMATTR InstName V2
SYMATTR Value 18
SYMBOL cap 224 64 R90
WINDOW 0 0 32 VBottom 2
WINDOW 3 32 32 VTop 2
SYMATTR InstName C1
SYMATTR Value 20n
SYMBOL res 352 -80 R90
WINDOW 0 0 56 VBottom 2
WINDOW 3 32 56 VTop 2
SYMATTR InstName R1
SYMATTR Value 5k
SYMBOL AutoGenerated\\LM833 368 96 M180
SYMATTR InstName U1
SYMBOL voltage -48 112 R0
WINDOW 3 24 44 Left 2
WINDOW 123 24 72 Left 2
WINDOW 39 0 0 Left 0
SYMATTR Value PULSE(0 17 0 0.001u 0.001u 20m)
SYMATTR Value2 AC 0.001
SYMATTR InstName V3
SYMBOL res 128 64 R90
WINDOW 0 0 56 VBottom 2
WINDOW 3 32 56 VTop 2
SYMATTR InstName R2
SYMATTR Value 103.487
TEXT 208 224 Left 2 !.ac dec 100 10 10000meg
TEXT 224 256 Left 2 !;.tran 0 50m 0 0.1
