Version 4
SHEET 1 880 680
WIRE -64 144 -176 144
WIRE 160 144 16 144
WIRE 336 160 224 160
WIRE 416 160 336 160
WIRE 160 176 96 176
WIRE 96 288 96 176
WIRE 192 288 96 288
WIRE 336 288 336 160
WIRE 336 288 272 288
WIRE -96 352 -96 336
WIRE -96 352 -192 352
WIRE 96 352 96 288
WIRE -192 368 -192 352
WIRE -96 384 -96 352
WIRE 96 480 96 432
FLAG 96 480 0
FLAG 416 160 Vout
FLAG -176 144 Vin
FLAG -192 368 0
FLAG -96 256 +Vcc
FLAG -96 464 -Vcc
FLAG 192 192 -Vcc
FLAG 192 128 +Vcc
SYMBOL Opamps\\UniversalOpamp2 192 160 R0
SYMATTR InstName U1
SYMBOL res 80 336 R0
SYMATTR InstName R1
SYMATTR Value 1K
SYMBOL res 288 272 R90
WINDOW 0 0 56 VBottom 2
WINDOW 3 32 56 VTop 2
SYMATTR InstName R2
SYMATTR Value 82K
SYMBOL res 32 128 R90
WINDOW 0 0 56 VBottom 2
WINDOW 3 32 56 VTop 2
SYMATTR InstName R3
SYMATTR Value 220K
SYMBOL voltage -96 240 R0
SYMATTR InstName V1
SYMATTR Value 15
SYMBOL voltage -96 368 R0
SYMATTR InstName V2
SYMATTR Value 15
