Version 4
SHEET 1 880 680
WIRE -96 240 -144 240
WIRE 32 240 -16 240
WIRE -272 288 -416 288
WIRE -144 288 -144 240
WIRE -144 288 -192 288
WIRE 32 288 32 240
WIRE 96 288 32 288
WIRE 192 288 96 288
WIRE 352 288 272 288
WIRE 432 288 352 288
WIRE 560 288 512 288
WIRE 560 336 560 288
WIRE -416 352 -416 288
WIRE -144 352 -144 288
WIRE -96 352 -144 352
WIRE 32 352 32 288
WIRE 32 352 -32 352
WIRE 96 352 96 288
WIRE -416 480 -416 432
WIRE 96 480 96 432
WIRE 560 480 560 416
FLAG 96 480 0
FLAG 352 288 Vout
FLAG 560 480 0
FLAG -416 480 0
FLAG 32 288 V-
FLAG -144 288 V+
SYMBOL res 80 336 R0
SYMATTR InstName R1
SYMATTR Value 1K
SYMBOL res 288 272 R90
WINDOW 0 0 56 VBottom 2
WINDOW 3 32 56 VTop 2
SYMATTR InstName R2
SYMATTR Value 82K
SYMBOL res -176 272 R90
WINDOW 0 0 56 VBottom 2
WINDOW 3 32 56 VTop 2
SYMATTR InstName R3
SYMATTR Value 220K
SYMBOL res 0 224 R90
WINDOW 0 0 56 VBottom 2
WINDOW 3 32 56 VTop 2
SYMATTR InstName Rin
SYMATTR Value ""
SYMBOL cap -32 336 R90
WINDOW 0 0 32 VBottom 2
WINDOW 3 32 32 VTop 2
SYMATTR InstName Cin
SYMATTR Value ""
SYMBOL voltage 560 320 R0
SYMATTR InstName Vo
SYMATTR Value Vo = Av (V+ - V-)
SYMBOL res 528 272 R90
WINDOW 0 0 56 VBottom 2
WINDOW 3 32 56 VTop 2
SYMATTR InstName Ro
SYMATTR Value ""
SYMBOL voltage -416 336 R0
SYMATTR InstName Vin
SYMATTR Value ""
