Version 4
SHEET 1 880 680
WIRE 384 -160 288 -160
WIRE 592 -160 464 -160
WIRE -176 -144 -272 -144
WIRE 144 -144 -176 -144
WIRE 304 -128 288 -128
WIRE 144 -112 96 -112
WIRE 304 -96 288 -96
WIRE 592 -80 592 -160
WIRE 592 64 592 0
WIRE -176 144 -176 -144
WIRE -80 144 -176 144
WIRE 96 144 96 -112
WIRE 96 144 0 144
WIRE 96 192 96 144
WIRE 96 320 96 272
FLAG 304 -96 +Vcc
FLAG 304 -128 -Vcc
FLAG 96 320 0
FLAG 592 64 0
FLAG -272 -144 Vout
FLAG 544 320 0
FLAG 688 320 0
FLAG 544 240 +Vcc
FLAG 688 240 -Vcc
SYMBOL res 80 176 R0
SYMATTR InstName R1
SYMATTR Value 1k
SYMBOL res 16 128 R90
WINDOW 0 0 56 VBottom 2
WINDOW 3 32 56 VTop 2
SYMATTR InstName R2
SYMATTR Value 80k
SYMBOL res 480 -176 R90
WINDOW 0 0 56 VBottom 2
WINDOW 3 32 56 VTop 2
SYMATTR InstName R3
SYMATTR Value 220k
SYMBOL voltage 592 -96 R0
WINDOW 123 22 84 Left 2
WINDOW 39 0 0 Left 0
SYMATTR Value2 AC 1
SYMATTR InstName Vin1
SYMATTR Value ""
SYMBOL voltage 544 224 R0
SYMATTR InstName V1
SYMATTR Value 15
SYMBOL voltage 688 224 R0
SYMATTR InstName V2
SYMATTR Value -15
SYMBOL AutoGenerated\\LM833TI 208 -128 R0
SYMATTR InstName U2
TEXT -192 344 Left 2 !.ac dec 100 100 10Meg
