Version 4
SHEET 1 880 680
WIRE 480 32 368 32
WIRE 560 32 480 32
WIRE 288 144 240 144
WIRE -64 160 -160 160
WIRE 176 160 16 160
WIRE 368 176 368 32
WIRE 368 176 240 176
WIRE 416 176 368 176
WIRE 176 192 64 192
WIRE 304 192 256 192
WIRE 256 208 256 192
WIRE 256 208 240 208
WIRE 176 224 144 224
WIRE -320 240 -400 240
WIRE -160 240 -160 160
WIRE -160 240 -320 240
WIRE 256 240 240 240
WIRE 256 256 256 240
WIRE 304 256 256 256
WIRE 64 336 64 192
WIRE 224 336 64 336
WIRE 368 336 368 176
WIRE 368 336 304 336
WIRE -160 384 -160 320
WIRE 64 384 64 336
WIRE 64 512 64 464
FLAG 144 224 +Vcc
FLAG 288 144 -Vcc
FLAG 64 512 0
FLAG -160 384 0
FLAG 416 176 Vout
FLAG 544 512 0
FLAG 688 512 0
FLAG 544 432 +Vcc
FLAG 688 432 -Vcc
FLAG -160 160 Vin
FLAG -320 304 0
FLAG -400 320 0
FLAG 480 96 0
FLAG 560 112 0
SYMBOL res 48 368 R0
SYMATTR InstName R1
SYMATTR Value {mc(1k,tol)}
SYMBOL res 320 320 R90
WINDOW 0 0 56 VBottom 2
WINDOW 3 32 56 VTop 2
SYMATTR InstName R2
SYMATTR Value {mc(80k,tol)}
SYMBOL res 32 144 R90
WINDOW 0 0 56 VBottom 2
WINDOW 3 32 56 VTop 2
SYMATTR InstName R3
SYMATTR Value {mc(1k,tol)}
SYMBOL voltage -160 224 R0
WINDOW 123 22 84 Left 2
WINDOW 39 0 0 Left 0
SYMATTR Value2 AC 100m
SYMATTR InstName Vin
SYMATTR Value ""
SYMBOL voltage 544 416 R0
SYMATTR InstName V2
SYMATTR Value 15
SYMBOL voltage 688 416 R0
SYMATTR InstName V3
SYMATTR Value -15
SYMBOL AutoGenerated\\NE5534 208 192 R0
SYMATTR InstName U2
SYMBOL cap 288 192 R0
SYMATTR InstName C1
SYMATTR Value 22p
SYMBOL cap -336 240 R0
WINDOW 3 39 47 Left 2
SYMATTR InstName C2
SYMATTR Value 10p
SYMBOL cap 464 32 R0
WINDOW 0 -31 19 Left 2
WINDOW 3 24 48 Left 2
SYMATTR InstName C3
SYMATTR Value 10p
SYMBOL res 544 16 R0
SYMATTR InstName R4
SYMATTR Value 10Meg
SYMBOL res -416 224 R0
WINDOW 3 -81 61 Left 2
SYMATTR InstName R5
SYMATTR Value 10Meg
TEXT -192 536 Left 2 !.ac dec 100 10 10Meg
TEXT -192 560 Left 2 !.param tol=0.05
TEXT -192 584 Left 2 !.step param run 1 18 1
