Version 4
SHEET 1 880 680
WIRE 272 48 224 48
WIRE 160 64 -176 64
WIRE 400 80 224 80
WIRE 160 96 48 96
WIRE 160 128 128 128
WIRE -176 144 -176 64
WIRE -176 288 -176 224
WIRE 48 416 48 96
FLAG 128 128 +Vcc
FLAG 272 48 -Vcc
FLAG 48 416 0
FLAG -176 288 0
FLAG 400 80 Vout
FLAG 528 416 0
FLAG 672 416 0
FLAG 528 336 +Vcc
FLAG 672 336 -Vcc
FLAG -176 64 Vin
SYMBOL voltage -176 128 R0
WINDOW 123 22 84 Left 2
WINDOW 39 0 0 Left 0
SYMATTR Value2 AC 1u
SYMATTR InstName Vin1
SYMATTR Value ""
SYMBOL voltage 528 320 R0
SYMATTR InstName V1
SYMATTR Value 15
SYMBOL voltage 672 320 R0
SYMATTR InstName V2
SYMATTR Value -15
SYMBOL AutoGenerated\\NE5534 192 96 R0
SYMATTR InstName U1
TEXT -208 440 Left 2 !.ac dec 100 100 10000G
