Version 4
SHEET 1 880 680
WIRE 288 144 240 144
WIRE -64 160 -160 160
WIRE 176 160 16 160
WIRE 288 176 240 176
WIRE 176 192 96 192
WIRE 368 208 240 208
WIRE 400 208 368 208
WIRE 416 208 400 208
WIRE -160 240 -160 160
WIRE 400 240 400 208
WIRE 96 336 96 192
WIRE 96 336 48 336
WIRE 224 336 96 336
WIRE 368 336 368 208
WIRE 368 336 304 336
WIRE 400 368 400 304
WIRE -160 384 -160 320
WIRE 96 384 96 336
WIRE 96 512 96 464
FLAG 288 144 +Vcc
FLAG 288 176 -Vcc
FLAG 96 512 0
FLAG -160 384 0
FLAG 416 208 Vout
FLAG 544 512 0
FLAG 688 512 0
FLAG 544 432 +Vcc
FLAG 688 432 -Vcc
FLAG -160 160 Vin
FLAG 400 368 0
SYMBOL AutoGenerated\\LM833 208 176 R0
SYMATTR InstName U1
SYMBOL res 80 368 R0
SYMATTR InstName R1
SYMATTR Value 1k
SYMBOL res 320 320 R90
WINDOW 0 0 56 VBottom 2
WINDOW 3 32 56 VTop 2
SYMATTR InstName R2
SYMATTR Value 80k
SYMBOL res 32 144 R90
WINDOW 0 0 56 VBottom 2
WINDOW 3 32 56 VTop 2
SYMATTR InstName R3
SYMATTR Value 220K
SYMBOL voltage -160 224 R0
WINDOW 123 22 84 Left 2
WINDOW 39 0 0 Left 0
WINDOW 3 15 107 Left 2
SYMATTR Value2 AC 100m
SYMATTR Value PULSE(0 10 10m 0.01m 0.01m 10m)
SYMATTR InstName Vin
SYMBOL voltage 544 416 R0
SYMATTR InstName V2
SYMATTR Value 15
SYMBOL voltage 688 416 R0
SYMATTR InstName V3
SYMATTR Value -15
SYMBOL cap 384 240 R0
SYMATTR InstName C2
SYMATTR Value 120p
TEXT -192 536 Left 2 !.ac dec 100 1m 100Meg
TEXT -192 560 Left 2 !;.tran 1
