Version 4
SHEET 1 880 680
WIRE 288 144 240 144
WIRE -64 160 -160 160
WIRE 176 160 16 160
WIRE 368 176 240 176
WIRE 416 176 368 176
WIRE 176 192 64 192
WIRE 176 224 144 224
WIRE -160 240 -160 160
WIRE 64 336 64 192
WIRE 224 336 64 336
WIRE 368 336 368 176
WIRE 368 336 304 336
WIRE -160 384 -160 320
WIRE 64 384 64 336
WIRE 64 512 64 464
FLAG 144 224 +Vcc
FLAG 288 144 -Vcc
FLAG 64 512 0
FLAG -160 384 0
FLAG 416 176 Vout
FLAG 544 512 0
FLAG 688 512 0
FLAG 544 432 +Vcc
FLAG 688 432 -Vcc
FLAG -160 160 Vin
SYMBOL res 48 368 R0
SYMATTR InstName R1
SYMATTR Value 1k
SYMBOL res 320 320 R90
WINDOW 0 0 56 VBottom 2
WINDOW 3 32 56 VTop 2
SYMATTR InstName R2
SYMATTR Value 80k
SYMBOL res 32 144 R90
WINDOW 0 0 56 VBottom 2
WINDOW 3 32 56 VTop 2
SYMATTR InstName R3
SYMATTR Value 220k
SYMBOL voltage -160 224 R0
WINDOW 123 22 84 Left 2
WINDOW 39 0 0 Left 0
SYMATTR Value2 AC 1u
SYMATTR InstName Vin
SYMATTR Value ""
SYMBOL voltage 544 416 R0
SYMATTR InstName V2
SYMATTR Value 15
SYMBOL voltage 688 416 R0
SYMATTR InstName V3
SYMATTR Value -15
SYMBOL AutoGenerated\\NE5534 208 192 R0
SYMATTR InstName U2
TEXT -192 536 Left 2 !.ac dec 100 100 10Meg
