Version 4
SHEET 1 880 680
WIRE 384 -64 272 -64
WIRE 560 -64 448 -64
WIRE -176 0 -176 -16
WIRE 560 64 560 -64
WIRE 560 64 448 64
WIRE 80 80 -16 80
WIRE 272 80 272 -64
WIRE 272 80 160 80
WIRE 384 80 272 80
WIRE -176 96 -176 80
WIRE -176 96 -224 96
WIRE -224 112 -224 96
WIRE 384 112 288 112
WIRE -176 128 -176 96
WIRE -16 128 -16 80
WIRE 288 144 288 112
WIRE -176 224 -176 208
WIRE -16 256 -16 208
FLAG -224 112 0
FLAG -176 -16 +VCC
FLAG -176 224 -VCC
FLAG 288 144 0
FLAG -16 256 0
FLAG 560 64 VO
FLAG 448 128 +VCC
FLAG 448 96 -VCC
SYMBOL voltage -176 -16 R0
WINDOW 123 0 0 Left 0
WINDOW 39 0 0 Left 0
SYMATTR InstName V1
SYMATTR Value 15
SYMBOL voltage -176 112 R0
WINDOW 123 0 0 Left 0
WINDOW 39 0 0 Left 0
SYMATTR InstName V2
SYMATTR Value 15
SYMBOL AutoGenerated\\LM833 416 96 M180
SYMATTR InstName U1
SYMBOL voltage -16 112 R0
WINDOW 3 -106 208 Left 2
WINDOW 123 -3 183 Left 2
WINDOW 39 0 0 Left 0
SYMATTR Value ""
SYMATTR Value2 AC 1
SYMATTR InstName V3
SYMBOL cap 448 -80 R90
WINDOW 0 0 32 VBottom 2
WINDOW 3 32 32 VTop 2
SYMATTR InstName C1
SYMATTR Value {mc(20n,0.1)}
SYMBOL res 176 64 R90
WINDOW 0 0 56 VBottom 2
WINDOW 3 32 56 VTop 2
SYMATTR InstName R1
SYMATTR Value {mc(5k,0.1)}
TEXT 256 224 Left 2 !.ac dec 100 10 10000meg
TEXT 256 264 Left 2 !;.tran 0 130m 100m 0.1m
TEXT 272 304 Left 2 !.step param 1 50 1
