Version 4
SHEET 1 880 680
WIRE 384 -176 272 -176
WIRE 560 -176 464 -176
WIRE 272 -64 272 -176
WIRE 384 -64 272 -64
WIRE 560 -64 560 -176
WIRE 560 -64 448 -64
WIRE -208 -48 -208 -64
WIRE -208 48 -208 32
WIRE -208 48 -256 48
WIRE -256 64 -256 48
WIRE 560 64 560 -64
WIRE 560 64 448 64
WIRE -208 80 -208 48
WIRE 80 80 -16 80
WIRE 272 80 272 -64
WIRE 272 80 160 80
WIRE 384 80 272 80
WIRE 384 112 288 112
WIRE -16 128 -16 80
WIRE 288 144 288 112
WIRE -208 176 -208 160
WIRE -16 256 -16 208
FLAG -256 64 0
FLAG -208 -64 +VCC
FLAG -208 176 -VCC
FLAG 288 144 0
FLAG -16 256 0
FLAG 560 64 VO
FLAG 448 128 +VCC
FLAG 448 96 -VCC
SYMBOL voltage -208 -64 R0
WINDOW 123 0 0 Left 0
WINDOW 39 0 0 Left 0
SYMATTR InstName V1
SYMATTR Value 15
SYMBOL voltage -208 64 R0
WINDOW 123 0 0 Left 0
WINDOW 39 0 0 Left 0
SYMATTR InstName V2
SYMATTR Value 15
SYMBOL AutoGenerated\\LM833 416 96 M180
SYMATTR InstName U1
SYMBOL voltage -16 112 R0
WINDOW 3 -3 211 Left 2
WINDOW 123 -3 183 Left 2
WINDOW 39 0 0 Left 0
SYMATTR Value SINE(0 100m 1meg)
SYMATTR Value2 AC 1
SYMATTR InstName V3
SYMBOL cap 448 -80 R90
WINDOW 0 0 32 VBottom 2
WINDOW 3 32 32 VTop 2
SYMATTR InstName C1
SYMATTR Value 20n
SYMBOL res 176 64 R90
WINDOW 0 0 56 VBottom 2
WINDOW 3 32 56 VTop 2
SYMATTR InstName R1
SYMATTR Value 5k
SYMBOL res 480 -192 R90
WINDOW 0 0 56 VBottom 2
WINDOW 3 32 56 VTop 2
SYMATTR InstName R2
SYMATTR Value 470k
TEXT 256 224 Left 2 !.ac dec 100 10 10000meg
TEXT 256 264 Left 2 !;.tran 0 50m 0 0.1m
TEXT 256 304 Left 2 !;.step param 1 50 1
